data/13_bus_load_shed_test.dss

Clear

! IEEE 13 Node Test Feeder with TRULY Insufficient Generation
! Generator is the ONLY source - no voltage source backup

Set DefaultBaseFrequency=60

! ========================================================================
! GENERATOR AS THE ONLY SOURCE - NO VOLTAGE SOURCE!
! ========================================================================
New Circuit.IEEE13_Insufficient
!~ basekv=4.16 pu=1.0 phases=3 bus1=650  ! Circuit starts at generator bus
~ basekv=0.4 pu=1.0 phases=3 MVAsc1=0.01 MVAsc3=0.01  bus1=650
!~ basekv=115 pu=1.0001 phases=3 bus1=SourceBus
!~ Angle=30                                                         ! advance angle 30 deg so result agree with published angle
!~ MVAsc3=20000 MVASC1=21000    ! stiffen the source to approximate inf source
!~ baseMVA=1

! ========================================================================
! SINGLE GENERATOR - INSUFFICIENT CAPACITY
! Total Load: ~3466 kW
! Generator: Only 2500 kW (28% shortage!)
! ========================================================================
New Generator.Gen1 bus1=650 phases=3 kV=4.16 
~ kW=2500 kvar=800 
~ kVA=2650           ! HARD LIMIT
~ Xdp=0.3
~ model=1 status=fixed
~ Vminpu=0.9 Vmaxpu=1.1

! FEEDER 1-PHASE VOLTAGE REGULATORS (from generator bus)
New Transformer.Reg1 phases=1 bank=reg1 XHL=0.01 kVAs=[1666 1666]
~ Buses=[650.1 RG60.1] kVs=[2.4 2.4] %LoadLoss=0.01 %rs=[0 0]

New Transformer.Reg2 phases=1 bank=reg1 XHL=0.01 kVAs=[1666 1666]
~ Buses=[650.2 RG60.2] kVs=[2.4 2.4] %LoadLoss=0.01 %rs=[0 0]

New Transformer.Reg3 phases=1 bank=reg1 XHL=0.01 kVAs=[1666 1666]
~ Buses=[650.3 RG60.3] kVs=[2.4 2.4] %LoadLoss=0.01 %rs=[0 0]

!TRANSFORMER DEFINITION
New Transformer.XFM1 Phases=3 Windings=2 XHL=2
~ wdg=1 bus=633 conn=Wye kv=4.16 kva=500 %r=.55 XHT=1
~ wdg=2 bus=634 conn=Wye kv=0.480 kva=500 %r=.55 XLT=1

!LINE CODES
New linecode.mtx601 nphases=3 BaseFreq=60
~ rmatrix = (0.3465 | 0.1560 0.3375 | 0.1580 0.1535 0.3414 )
~ xmatrix = (1.0179 | 0.5017 1.0478 | 0.4236 0.3849 1.0348 )
~ units=mi

New linecode.mtx602 nphases=3 BaseFreq=60
~ rmatrix = (0.7526 | 0.1580 0.7475 | 0.1560 0.1535 0.7436 )
~ xmatrix = (1.1814 | 0.4236 1.1983 | 0.5017 0.3849 1.2112 )
~ units=mi

New linecode.mtx603 nphases=2 BaseFreq=60
~ rmatrix = (1.3238 | 0.2066 1.3294 )
~ xmatrix = (1.3569 | 0.4591 1.3471 )
~ units=mi

New linecode.mtx604 nphases=2 BaseFreq=60
~ rmatrix = (1.3238 | 0.2066 1.3294 )
~ xmatrix = (1.3569 | 0.4591 1.3471 )
~ units=mi

New linecode.mtx605 nphases=1 BaseFreq=60
~ rmatrix = (1.3292 )
~ xmatrix = (1.3475 )
~ units=mi

New Linecode.mtx606 nphases=3 Units=mi
~ Rmatrix=[0.791721 |0.318476 0.781649 |0.28345 0.318476 0.791721 ]
~ Xmatrix=[0.438352 |0.0276838 0.396697 |-0.0184204 0.0276838 0.438352 ]
~ Cmatrix=[383.948 |0 383.948 |0 0 383.948 ]

New linecode.mtx607 nphases=1 BaseFreq=60
~ rmatrix = (1.3425 )
~ xmatrix = (0.5124 )
~ cmatrix = [236]
~ units=mi

!LOAD DEFINITIONS - TOTAL: ~3466 kW
New Load.671 Bus1=671.1.2.3 Phases=3 Conn=Delta Model=1 kV=4.16 kW=1155 kvar=660 vminpu=0.6 vmaxpu=1.4
New Load.634a Bus1=634.1 Phases=1 Conn=Wye Model=1 kV=0.277 kW=160 kvar=110 vminpu=0.6 vmaxpu=1.4
New Load.634b Bus1=634.2 Phases=1 Conn=Wye Model=1 kV=0.277 kW=120 kvar=90 vminpu=0.6 vmaxpu=1.4
New Load.634c Bus1=634.3 Phases=1 Conn=Wye Model=1 kV=0.277 kW=120 kvar=90 vminpu=0.6 vmaxpu=1.4
New Load.645 Bus1=645.2 Phases=1 Conn=Wye Model=1 kV=2.4 kW=170 kvar=125 vminpu=0.6 vmaxpu=1.4
New Load.646 Bus1=646.2.3 Phases=1 Conn=Delta Model=2 kV=4.16 kW=230 kvar=132 vminpu=0.6 vmaxpu=1.4
New Load.692 Bus1=692.3.1 Phases=1 Conn=Delta Model=5 kV=4.16 kW=170 kvar=151 vminpu=0.6 vmaxpu=1.4
New Load.675a Bus1=675.1 Phases=1 Conn=Wye Model=1 kV=2.4 kW=485 kvar=190 vminpu=0.6 vmaxpu=1.4
New Load.675b Bus1=675.2 Phases=1 Conn=Wye Model=1 kV=2.4 kW=68 kvar=60 vminpu=0.6 vmaxpu=1.4
New Load.675c Bus1=675.3 Phases=1 Conn=Wye Model=1 kV=2.4 kW=290 kvar=212 vminpu=0.6 vmaxpu=1.4
New Load.611 Bus1=611.3 Phases=1 Conn=Wye Model=5 kV=2.4 kW=170 kvar=80 vminpu=0.6 vmaxpu=1.4
New Load.652 Bus1=652.1 Phases=1 Conn=Wye Model=2 kV=2.4 kW=128 kvar=86 vminpu=0.6 vmaxpu=1.4
New Load.670a Bus1=670.1 Phases=1 Conn=Wye Model=1 kV=2.4 kW=17 kvar=10 vminpu=0.6 vmaxpu=1.4
New Load.670b Bus1=670.2 Phases=1 Conn=Wye Model=1 kV=2.4 kW=66 kvar=38 vminpu=0.6 vmaxpu=1.4
New Load.670c Bus1=670.3 Phases=1 Conn=Wye Model=1 kV=2.4 kW=117 kvar=68 vminpu=0.6 vmaxpu=1.4

!CAPACITOR DEFINITIONS
New Capacitor.Cap1 Bus1=675 phases=3 kVAR=600 kV=4.16
New Capacitor.Cap2 Bus1=611.3 phases=1 kVAR=100 kV=2.4

!LINE DEFINITIONS
New Line.650632 Phases=3 Bus1=RG60.1.2.3 Bus2=632.1.2.3 LineCode=mtx601 Length=2000 units=ft
New Line.632670 Phases=3 Bus1=632.1.2.3 Bus2=670.1.2.3 LineCode=mtx601 Length=667 units=ft
New Line.670671 Phases=3 Bus1=670.1.2.3 Bus2=671.1.2.3 LineCode=mtx601 Length=1333 units=ft
New Line.671680 Phases=3 Bus1=671.1.2.3 Bus2=680.1.2.3 LineCode=mtx601 Length=1000 units=ft
New Line.632633 Phases=3 Bus1=632.1.2.3 Bus2=633.1.2.3 LineCode=mtx602 Length=500 units=ft
New Line.632645 Phases=2 Bus1=632.3.2 Bus2=645.3.2 LineCode=mtx603 Length=500 units=ft
New Line.645646 Phases=2 Bus1=645.3.2 Bus2=646.3.2 LineCode=mtx603 Length=300 units=ft
New Line.692675 Phases=3 Bus1=692.1.2.3 Bus2=675.1.2.3 LineCode=mtx606 Length=500 units=ft
New Line.671684 Phases=2 Bus1=671.1.3 Bus2=684.1.3 LineCode=mtx604 Length=300 units=ft
New Line.684611 Phases=1 Bus1=684.3 Bus2=611.3 LineCode=mtx605 Length=300 units=ft
New Line.684652 Phases=1 Bus1=684.1 Bus2=652.1 LineCode=mtx607 Length=800 units=ft

!SWITCH DEFINITIONS
New Line.671692 Phases=3 Bus1=671 Bus2=692 Switch=y r1=1e-4 r0=1e-4 x1=0.000 x0=0.000 c1=0.000 c0=0.000 enabled=y

Set Voltagebases=[4.16, .48]
calcv

Transformer.Reg1.Taps=[1.0 1.0625]
Transformer.Reg2.Taps=[1.0 1.0500]
Transformer.Reg3.Taps=[1.0 1.06875]

Set Controlmode=OFF
Set tolerance=0.001

Solve